Version 4
SHEET 1 1080 680
WIRE -544 -48 -640 -48
WIRE -320 -48 -480 -48
WIRE 0 -32 -96 -32
WIRE 224 -32 64 -32
WIRE 544 -16 448 -16
WIRE 768 -16 608 -16
WIRE -752 64 -832 64
WIRE -640 64 -640 -48
WIRE -640 64 -672 64
WIRE -608 64 -640 64
WIRE -496 64 -528 64
WIRE -432 64 -496 64
WIRE -320 80 -320 -48
WIRE -320 80 -368 80
WIRE -208 80 -320 80
WIRE -96 80 -96 -32
WIRE -96 80 -128 80
WIRE -64 80 -96 80
WIRE 48 80 16 80
WIRE 112 80 48 80
WIRE -832 96 -832 64
WIRE -432 96 -448 96
WIRE 224 96 224 -32
WIRE 224 96 176 96
WIRE 336 96 224 96
WIRE 448 96 448 -16
WIRE 448 96 416 96
WIRE 480 96 448 96
WIRE 592 96 560 96
WIRE 656 96 592 96
WIRE -496 112 -496 64
WIRE -320 112 -320 80
WIRE 112 112 96 112
WIRE 768 112 768 -16
WIRE 768 112 720 112
WIRE 1008 112 768 112
WIRE 48 128 48 80
WIRE 224 128 224 96
WIRE 656 128 640 128
WIRE 592 144 592 96
WIRE 768 144 768 112
WIRE -832 192 -832 176
WIRE -496 208 -496 176
WIRE -448 224 -448 96
WIRE -320 224 -320 192
WIRE -320 224 -448 224
WIRE 48 224 48 192
WIRE 96 240 96 112
WIRE 224 240 224 208
WIRE 224 240 96 240
WIRE 592 240 592 208
WIRE -320 256 -320 224
WIRE 640 256 640 128
WIRE 768 256 768 224
WIRE 768 256 640 256
WIRE 224 272 224 240
WIRE 768 288 768 256
WIRE -320 352 -320 336
WIRE 224 368 224 352
WIRE 768 384 768 368
FLAG -832 192 0
FLAG -496 208 0
FLAG -320 352 0
FLAG 48 224 0
FLAG 224 368 0
FLAG 592 240 0
FLAG 768 384 0
FLAG 1008 112 out2
SYMBOL res -512 48 R90
WINDOW 0 0 56 VBottom 2
WINDOW 3 28 56 VBottom 2
SYMATTR InstName R1
SYMATTR Value 632.38
SYMBOL cap -480 -64 R90
WINDOW 0 0 32 VBottom 2
WINDOW 3 28 32 VBottom 2
SYMATTR InstName C1
SYMATTR Value 25n
SYMBOL cap -480 176 R180
WINDOW 0 24 56 Left 2
WINDOW 3 24 28 Left 2
SYMATTR InstName C2
SYMATTR Value 25n
SYMBOL OpAmps\\opamp -400 16 R0
SYMATTR InstName U1
SYMBOL res -336 96 R0
WINDOW 3 36 68 Left 2
SYMATTR Value 658.94
SYMATTR InstName R2
SYMBOL res -336 240 R0
WINDOW 3 36 68 Left 2
SYMATTR Value 632.38
SYMATTR InstName R3
SYMBOL voltage -832 80 R0
WINDOW 123 24 72 Left 2
WINDOW 39 0 0 Left 0
WINDOW 3 24 44 Left 2
SYMATTR Value2 AC 1
SYMATTR Value SINE(0 0.1 1m)
SYMATTR InstName V1
SYMBOL res -112 64 R90
WINDOW 0 0 56 VBottom 2
WINDOW 3 28 56 VBottom 2
SYMATTR InstName R4
SYMATTR Value 1532
SYMBOL res 32 64 R90
WINDOW 0 0 56 VBottom 2
WINDOW 3 28 56 VBottom 2
SYMATTR InstName R5
SYMATTR Value 1532
SYMBOL cap 64 -48 R90
WINDOW 0 0 32 VBottom 2
WINDOW 3 28 32 VBottom 2
SYMATTR InstName C3
SYMATTR Value 25n
SYMBOL cap 64 192 R180
WINDOW 0 24 56 Left 2
WINDOW 3 24 28 Left 2
SYMATTR InstName C4
SYMATTR Value 25n
SYMBOL res 208 112 R0
WINDOW 3 36 68 Left 2
SYMATTR Value 2621
SYMATTR InstName R6
SYMBOL res 208 256 R0
WINDOW 3 36 68 Left 2
SYMATTR Value 1532
SYMATTR InstName R7
SYMBOL res 432 80 R90
WINDOW 0 0 56 VBottom 2
WINDOW 3 28 56 VBottom 2
SYMATTR InstName R8
SYMATTR Value 2073
SYMBOL res 576 80 R90
WINDOW 0 0 56 VBottom 2
WINDOW 3 28 56 VBottom 2
SYMATTR InstName R9
SYMATTR Value 2073
SYMBOL cap 608 -32 R90
WINDOW 0 0 32 VBottom 2
WINDOW 3 28 32 VBottom 2
SYMATTR InstName C5
SYMATTR Value 25n
SYMBOL cap 608 208 R180
WINDOW 0 24 56 Left 2
WINDOW 3 24 28 Left 2
SYMATTR InstName C6
SYMATTR Value 25n
SYMBOL res 752 128 R0
WINDOW 3 36 68 Left 2
SYMATTR Value 3985
SYMATTR InstName R10
SYMBOL res 752 272 R0
WINDOW 3 36 68 Left 2
SYMATTR Value 2073
SYMATTR InstName R11
SYMBOL res -656 48 R90
WINDOW 0 0 56 VBottom 2
WINDOW 3 28 56 VBottom 2
SYMATTR InstName R12
SYMATTR Value 632.38
SYMBOL OpAmps\\opamp 144 32 R0
SYMATTR InstName U2
SYMBOL OpAmps\\opamp 688 48 R0
SYMATTR InstName U3
TEXT -1072 -16 Left 2 !.inc opamp.sub
TEXT -1064 -72 Left 2 !.ac dec 20 1 10k
